tests/data/power_flow/pv-node/pv-node3/input.json
{
  "version": "1.0",
  "type": "input",
  "is_batch": false,
  "attributes": {},
  "data": {
    "node": [
      {
        "id": 1,
        "u_rated": 110e3
      },
      {
        "id": 2,
        "u_rated": 110e3
      },
      {
        "id": 3,
        "u_rated": 110e3
      }
    ],
    "line": [
      {
        "id": 4,
        "from_node": 1,
        "to_node": 2,
        "from_status": 1,
        "to_status": 1,
        "r1": 0.0,
        "x1": 10.0,
        "c1": 238.78e-9,
        "tan1": 0.0,
        "_length": 25.0
      },
      {
        "id": 5,
        "from_node": 1,
        "to_node": 3,
        "from_status": 1,
        "to_status": 1,
        "r1": 0.0,
        "x1": 10.0,
        "c1": 238.78e-9,
        "tan1": 0.0,
        "_length": 25.0
      },
      {
        "id": 6,
        "from_node": 3,
        "to_node": 2,
        "from_status": 1,
        "to_status": 1,
        "r1": 0.0,
        "x1": 10.0,
        "c1": 238.78e-9,
        "tan1": 0.0,
        "_length": 25.0
      }
    ],
    "source": [
      {
        "id": 7,
        "node": 3,
        "status": 1,
        "u_ref": 1.018182,
        "sk": 1e40
      }
    ],
    "sym_gen": [
      {
        "id": 8,
        "node": 2,
        "status": 1,
        "type": 0,
        "p_specified": 70e6,
        "q_specified": 0e6
      }
    ],
    "voltage_regulator": [
      {
        "id": 9,
        "regulated_object": 8,
        "status": 1,
        "u_ref": 1.027273
      }
    ],
    "sym_load": [
      {
        "id": 10,
        "node": 1,
        "status": 1,
        "type": 0,
        "p_specified": 100e6,
        "q_specified": 30e6
      }
    ]
  }
}
