tests/data/power_flow/pv-node/pv-node3/sym_output.json
{
  "version": "1.0",
  "type": "sym_output",
  "is_batch": false,
  "attributes": {},
  "data": {
    "node": [
      {
        "id": 1,
        "energized": 1,
        "u_pu": 1.01,
        "u": 111099.965168,
        "u_angle": -0.03476
      },
      {
        "id": 2,
        "energized": 1,
        "u_pu": 1.027273,
        "u": 113000.03,
        "u_angle": 0.010464
      },
      {
        "id": 3,
        "energized": 1,
        "u_pu": 1.018182,
        "u": 112000.02,
        "u_angle": -0.0
      }
    ],
    "sym_load": [
      {
        "id": 10,
        "energized": 1,
        "p": 100000000.0,
        "q": 30000000.0,
        "i": 542.548665,
        "s": 104403065.089106,
        "pf": 0.957826
      }
    ],
    "sym_gen": [
      {
        "id": 8,
        "energized": 1,
        "p": 70000000.0,
        "q": 33165882.712756,
        "i": 395.76334,
        "s": 77459510.559493,
        "pf": 0.903698
      }
    ],
    "source": [
      {
        "id": 7,
        "energized": 1,
        "p": 30000000.0,
        "q": -1239548.855064,
        "i": 154.779317,
        "s": 30025597.102541,
        "pf": 0.999147
      }
    ],
    "line": [
      {
        "id": 4,
        "energized": 1,
        "p_from": -56756451.555671,
        "q_from": -20289074.948068,
        "i_from": 313.22372,
        "s_from": 60273886.181659,
        "p_to": 56756451.555671,
        "q_to": 22275406.177503,
        "i_to": 311.519783,
        "s_to": 60971210.530577
      },
      {
        "id": 5,
        "energized": 1,
        "p_from": -43243548.444329,
        "q_from": -9710925.051933,
        "i_from": 230.319167,
        "s_from": 44320498.05024,
        "p_to": 43243548.444329,
        "q_to": 10361765.341661,
        "i_to": 229.22676,
        "s_to": 44467636.130704
      },
      {
        "id": 6,
        "energized": 1,
        "p_from": -13243548.444329,
        "q_from": -11601314.196725,
        "i_from": 90.75897,
        "s_from": 17606307.576787,
        "p_to": 13243548.444329,
        "q_to": 10890476.535252,
        "i_to": 87.605241,
        "s_to": 17146254.826118
      }
    ],
    "voltage_regulator": [
      {
        "id": 9,
        "energized": 1,
        "q": 33165882.712756,
        "limit_violated": 0
      }
    ]
  }
}